feeders/123Bus/ieee123_Curr_Seq.Txt

SYMMETRICAL COMPONENT CURRENTS BY CIRCUIT ELEMENT (first 3 phases)

Element              Term      I1         I2         %I2/I1    I0         %I0/I1   %Normal %Emergency

"VSOURCE.SOURCE" ...   1      332.02       45.309    13.65       37.24    11.22      0.00     0.00
   -                   2      332.02       45.309    13.65       37.24    11.22      0.00     0.00
"TRANSFORMER.REG1A"    1      332.02       45.309    13.65       37.24    11.22     53.09    38.93
   -                   2      332.02       45.309    13.65       37.24    11.22      0.00     0.00
"LINE.L115" ........   1      332.02       45.309    13.65       37.24    11.22    101.31    67.54
   -                   2      332.02       45.309    13.65       37.24    11.22      0.00     0.00
"LINE.L1" ..........   1      7.0476            0     0.00           0     0.00      1.76     1.17
   -                   2      7.0478            0     0.00           0     0.00      0.00     0.00
"LINE.L2" ..........   1      35.203            0     0.00           0     0.00      8.80     5.87
   -                   2      35.203            0     0.00           0     0.00      0.00     0.00
"LINE.L3" ..........   1      313.64       44.977    14.34      36.572    11.66     97.81    65.21
   -                   2      313.64       44.977    14.34      36.572    11.66      0.00     0.00
"LINE.L4" ..........   1      14.175            0     0.00           0     0.00      3.54     2.36
   -                   2      14.175            0     0.00           0     0.00      0.00     0.00
"LINE.L5" ..........   1      21.028            0     0.00           0     0.00      5.26     3.50
   -                   2      21.029            0     0.00           0     0.00      0.00     0.00
"LINE.L6" ..........   1      13.985            0     0.00           0     0.00      3.50     2.33
   -                   2      13.985            0     0.00           0     0.00      0.00     0.00
"LINE.L7" ..........   1      311.33       42.657    13.70      34.273    11.01     96.06    64.04
   -                   2      311.33       42.657    13.70      34.273    11.01      0.00     0.00
"LINE.L8" ..........   1      7.0577            0     0.00           0     0.00      1.76     1.18
   -                   2      7.0579            0     0.00           0     0.00      0.00     0.00
"LINE.L9" ..........   1      35.197            0     0.00           0     0.00      8.80     5.87
   -                   2      35.197            0     0.00           0     0.00      0.00     0.00
"LINE.L10" .........   1      297.65       33.102    11.12      25.104     8.43     87.44    58.29
   -                   2      297.65       33.103    11.12      25.104     8.43      0.00     0.00
"LINE.L11" .........   1      20.863            0     0.00           0     0.00      5.22     3.48
   -                   2      20.864            0     0.00           0     0.00      0.00     0.00
"LINE.L12" .........   1      35.339            0     0.00           0     0.00      8.83     5.89
   -                   2       35.34            0     0.00           0     0.00      0.00     0.00
"LINE.L13" .........   1      135.83       21.098    15.53      16.622    12.24     43.30    28.87
   -                   2      135.83       21.098    15.53      16.622    12.24      0.00     0.00
"LINE.L14" .........   1       13.82            0     0.00           0     0.00      3.46     2.30
   -                   2      13.821            0     0.00           0     0.00      0.00     0.00
"LINE.L15" .........   1      7.0434            0     0.00           0     0.00      1.76     1.17
   -                   2      7.0436            0     0.00           0     0.00      0.00     0.00
"LINE.L16" .........   1      14.301            0     0.00           0     0.00      3.58     2.38
   -                   2      14.301            0     0.00           0     0.00      0.00     0.00
"LINE.L17" .........   1      7.1474            0     0.00           0     0.00      1.79     1.19
   -                   2      7.1477            0     0.00           0     0.00      0.00     0.00
"LINE.L18" .........   1      28.587            0     0.00           0     0.00      7.15     4.76
   -                   2      28.587            0     0.00           0     0.00      0.00     0.00
"LINE.L19" .........   1      33.016       9.7173    29.43      9.3295    28.26     10.80     7.20
   -                   2      33.016       9.7174    29.43      9.3295    28.26      0.00     0.00
"LINE.L20" .........   1      14.087            0     0.00           0     0.00      3.52     2.35
   -                   2      14.087            0     0.00           0     0.00      0.00     0.00
"LINE.L21" .........   1      13.988            0     0.00           0     0.00      3.50     2.33
   -                   2      13.988            0     0.00           0     0.00      0.00     0.00
"LINE.L22" .........   1      28.354       14.376    50.70      13.991    49.34     10.80     7.20
   -                   2      28.354       14.376    50.70      13.991    49.34      0.00     0.00
"LINE.L23" .........   1      14.401            0     0.00           0     0.00      3.60     2.40
   -                   2      14.401            0     0.00           0     0.00      0.00     0.00
"LINE.L24" .........   1      23.554       12.512    53.12      12.217    51.87     10.46     6.98
   -                   2      23.554       12.512    53.12      12.217    51.87      0.00     0.00
"LINE.L25" .........   1      14.086            0     0.00           0     0.00      3.52     2.35
   -                   2      14.087            0     0.00           0     0.00      0.00     0.00
"LINE.L26" .........   1      14.056       8.0917    57.57      7.9425    56.50      6.94     4.63
   -                   2      14.057       8.0917    57.56      7.9425    56.50      0.00     0.00
"LINE.L27" .........   1      14.087            0     0.00           0     0.00      3.52     2.35
   -                   2      14.087            0     0.00           0     0.00      0.00     0.00
"LINE.L28" .........   1      14.409            0     0.00           0     0.00      3.60     2.40
   -                   2      14.409            0     0.00           0     0.00      0.00     0.00
"LINE.L29" .........   1      14.087            0     0.00           0     0.00      3.52     2.35
   -                   2      14.087            0     0.00           0     0.00      0.00     0.00
"LINE.L30" .........   1       9.361       4.7491    50.73      4.6224    49.38      3.60     2.40
   -                   2      9.3614       4.7492    50.73      4.6224    49.38      0.00     0.00
"LINE.L31" .........   1      4.8023       4.8029   100.01       4.803   100.01      3.60     2.40
   -                   2      4.8028        4.803   100.00       4.803   100.01      0.00     0.00
"LINE.L32" .........   1  0.00061677   7.0854E-005    11.49  1.7663E-005     2.86      0.00     0.00
   -                   2  1.8133E-012   1.4565E-011   803.25  1.5061E-011   830.59      0.00     0.00
"LINE.L33" .........   1      7.2056            0     0.00           0     0.00      1.80     1.20
   -                   2      7.2059            0     0.00           0     0.00      0.00     0.00
"LINE.L34" .........   1      21.448            0     0.00           0     0.00      5.36     3.57
   -                   2      21.448            0     0.00           0     0.00      0.00     0.00
"LINE.L35" .........   1      13.652            0     0.00           0     0.00      3.41     2.28
   -                   2      13.653            0     0.00           0     0.00      0.00     0.00
"LINE.L36" .........   1      79.412       3.0431     3.83      2.2102     2.78     20.59    13.73
   -                   2      79.412       3.0432     3.83      2.2102     2.78      0.00     0.00
"LINE.L37" .........   1      13.653            0     0.00           0     0.00      3.41     2.28
   -                   2      13.653            0     0.00           0     0.00      0.00     0.00
"LINE.L38" .........   1      14.152            0     0.00           0     0.00      3.54     2.36
   -                   2      14.152            0     0.00           0     0.00      0.00     0.00
"LINE.L39" .........   1      7.1084            0     0.00           0     0.00      1.78     1.18
   -                   2      7.1087            0     0.00           0     0.00      0.00     0.00
"LINE.L40" .........   1      7.1933            0     0.00           0     0.00      1.80     1.20
   -                   2      7.1936            0     0.00           0     0.00      0.00     0.00
"LINE.L41" .........   1      77.031        5.304     6.89       4.541     5.90     20.59    13.73
   -                   2      77.031       5.3041     6.89       4.541     5.89      0.00     0.00
"LINE.L42" .........   1      13.937            0     0.00           0     0.00      3.48     2.32
   -                   2      13.937            0     0.00           0     0.00      0.00     0.00
"LINE.L43" .........   1       70.01       3.6172     5.17       1.517     2.17     18.78    12.52
   -                   2       70.01       3.6172     5.17       1.517     2.17      0.00     0.00
"LINE.L44" .........   1      14.331            0     0.00           0     0.00      3.58     2.39
   -                   2      14.331            0     0.00           0     0.00      0.00     0.00
"LINE.L45" .........   1      65.268       1.1737     1.80      3.2744     5.02     16.92    11.28
   -                   2      65.268       1.1736     1.80      3.2744     5.02      0.00     0.00
"LINE.L46" .........   1      7.2871            0     0.00           0     0.00      1.82     1.21
   -                   2      7.2873            0     0.00           0     0.00      0.00     0.00
"LINE.L47" .........   1      26.446      0.14783     0.56     0.25861     0.98      6.69     4.46
   -                   2      26.447      0.14794     0.56     0.25866     0.98      0.00     0.00
"LINE.L48" .........   1      25.314       1.0139     4.01       3.073    12.14      6.85     4.57
   -                   2      25.314       1.0141     4.01      3.0731    12.14      0.00     0.00
"LINE.L49" .........   1      7.2355        4.196    57.99      4.1304    57.09      3.60     2.40
   -                   2      7.2358       4.1958    57.99      4.1303    57.08      0.00     0.00
"LINE.L50" .........   1      2.4292       2.4307   100.06      2.4303   100.04      1.82     1.22
   -                   2      2.4295       2.4305   100.04      2.4302   100.03      0.00     0.00
"LINE.L51" .........   1   0.0013661   0.00041136    30.11   0.0001871    13.70      0.00     0.00
   -                   2  3.4701E-008   1.9046E-008    54.88  1.8972E-008    54.67      0.00     0.00
"LINE.L52" .........   1      159.31       11.285     7.08       7.073     4.44     43.42    28.95
   -                   2      159.31       11.285     7.08       7.073     4.44      0.00     0.00
"LINE.L53" .........   1      155.24       6.6256     4.27      2.3156     1.49     40.26    26.84
   -                   2      155.24       6.6256     4.27      2.3156     1.49      0.00     0.00
"LINE.L54" .........   1      4.6445       2.2985    49.49      2.3482    50.56      1.77     1.18
   -                   2      4.6449       2.2986    49.49      2.3482    50.55      0.00     0.00
"LINE.L55" .........   1      151.33        6.661     4.40      1.8112     1.20     38.88    25.92
   -                   2      151.33       6.6608     4.40      1.8112     1.20      0.00     0.00
"LINE.L56" .........   1      2.3567       2.3571   100.02      2.3571   100.02      1.77     1.18
   -                   2      2.3571       2.3571   100.00      2.3571   100.00      0.00     0.00
"LINE.L57" .........   1      14.127            0     0.00           0     0.00      3.53     2.35
   -                   2      14.127            0     0.00           0     0.00      0.00     0.00
"LINE.L58" .........   1       147.4       11.195     7.59       6.508     4.42     38.88    25.92
   -                   2       147.4       11.194     7.59      6.5079     4.42      0.00     0.00
"LINE.L59" .........   1      7.0838            0     0.00           0     0.00      1.77     1.18
   -                   2       7.084            0     0.00           0     0.00      0.00     0.00
"LINE.L60" .........   1   0.0016839   0.00019348    11.49  3.9185E-005     2.33      0.00     0.00
   -                   2  1.3631E-005   1.0708E-007     0.79  1.0063E-007     0.74      0.00     0.00
"LINE.L61" .........   1      44.496       9.8652    22.17      7.3439    16.50     15.20    10.13
   -                   2        44.5       9.8652    22.17      7.3439    16.50      0.00     0.00
"LINE.L62" .........   1      39.902       5.2607    13.18      3.9375     9.87     11.74     7.83
   -                   2      39.904       5.2607    13.18      3.9376     9.87      0.00     0.00
"LINE.L63" .........   1      35.074       8.6538    24.67      8.7718    25.01     11.75     7.83
   -                   2      35.079       8.6538    24.67      8.7719    25.01      0.00     0.00
"LINE.L64" .........   1      26.443       12.269    46.40      8.9143    33.71     11.75     7.83
   -                   2      26.449       12.269    46.39      8.9143    33.70      0.00     0.00
"LINE.L65" .........   1      8.9103       8.9144   100.05      8.9143   100.05      6.68     4.46
   -                   2      8.9144       8.9144   100.00      8.9144   100.00      0.00     0.00
"LINE.L66" .........   1      43.625            0     0.00           0     0.00     10.91     7.27
   -                   2      43.625            0     0.00           0     0.00      0.00     0.00
"LINE.L67" .........   1      104.97       4.6199     4.40      7.5408     7.18     27.51    18.34
   -                   2      104.97         4.62     4.40      7.5408     7.18      0.00     0.00
"LINE.L68" .........   1  2.3576E-009   1.4486E-011     0.61  2.2056E-011     0.94      0.00     0.00
   -                   2           0            0     0.00           0     0.00      0.00     0.00
"LINE.L69" .........   1      36.368            0     0.00           0     0.00      9.09     6.06
   -                   2      36.369            0     0.00           0     0.00      0.00     0.00
"LINE.L70" .........   1      21.833            0     0.00           0     0.00      5.46     3.64
   -                   2      21.834            0     0.00           0     0.00      0.00     0.00
"LINE.L71" .........   1      14.559            0     0.00           0     0.00      3.64     2.43
   -                   2      14.559            0     0.00           0     0.00      0.00     0.00
"LINE.L72" .........   1      42.562            0     0.00           0     0.00     10.64     7.09
   -                   2      42.563            0     0.00           0     0.00      0.00     0.00
"LINE.L73" .........   1      97.591       13.114    13.44      10.401    10.66     26.23    17.49
   -                   2       97.59       13.114    13.44      10.401    10.66      0.00     0.00
"LINE.L74" .........   1      28.192            0     0.00           0     0.00      7.05     4.70
   -                   2      28.192            0     0.00           0     0.00      0.00     0.00
"LINE.L75" .........   1      14.403            0     0.00           0     0.00      3.60     2.40
   -                   2      14.403            0     0.00           0     0.00      0.00     0.00
"LINE.L76" .........   1      74.056      0.61934     0.84     0.64974     0.88     18.74    12.49
   -                   2      74.055      0.61938     0.84     0.64971     0.88      0.00     0.00
"LINE.L77" .........   1      28.493       10.051    35.28      10.404    36.51     11.11     7.41
   -                   2      28.493       10.051    35.28      10.404    36.51      0.00     0.00
"LINE.L78" .........   1        74.7       5.3079     7.11      5.0553     6.77     19.47    12.98
   -                   2        74.7       5.3079     7.11      5.0553     6.77      0.00     0.00
"LINE.L79" .........   1      4.5724       4.5728   100.01      4.5727   100.01      3.43     2.29
   -                   2      4.5727       4.5727   100.00      4.5727   100.00      0.00     0.00
"LINE.L80" .........   1      75.666       5.0936     6.73      4.4136     5.83     19.47    12.98
   -                   2      75.665       5.0937     6.73      4.4136     5.83      0.00     0.00
"LINE.L81" .........   1      76.873       8.7246    11.35       8.247    10.73     20.78    13.86
   -                   2      76.872       8.7246    11.35       8.247    10.73      0.00     0.00
"LINE.L82" .........   1      79.239       4.6124     5.82      4.7841     6.04     20.78    13.86
   -                   2      79.238       4.6124     5.82      4.7841     6.04      0.00     0.00
"LINE.L83" .........   1      21.509            0     0.00           0     0.00      5.38     3.58
   -                   2       21.51            0     0.00           0     0.00      0.00     0.00
"LINE.L84" .........   1       81.19        2.627     3.24      2.1088     2.60     20.78    13.86
   -                   2       81.19        2.627     3.24      2.1088     2.60      0.00     0.00
"LINE.L85" .........   1      14.345            0     0.00           0     0.00      3.59     2.39
   -                   2      14.345            0     0.00           0     0.00      0.00     0.00
"LINE.L86" .........   1      26.711       7.9684    29.83      8.3253    31.17      9.52     6.35
   -                   2      26.711       7.9683    29.83      8.3253    31.17      0.00     0.00
"LINE.L87" .........   1      18.882            0     0.00           0     0.00      4.72     3.15
   -                   2      18.882            0     0.00           0     0.00      0.00     0.00
"LINE.L88" .........   1      17.767       2.2773    12.82      10.249    57.69      6.64     4.42
   -                   2      17.766       2.2773    12.82      10.249    57.69      0.00     0.00
"LINE.L89" .........   1      19.067            0     0.00           0     0.00      4.77     3.18
   -                   2      19.067            0     0.00           0     0.00      0.00     0.00
"LINE.L90" .........   1      12.811        6.924    54.05      6.8136    53.19      4.76     3.17
   -                   2      12.811       6.9239    54.05      6.8136    53.19      0.00     0.00
"LINE.L91" .........   1      19.031            0     0.00           0     0.00      4.76     3.17
   -                   2      19.031            0     0.00           0     0.00      0.00     0.00
"LINE.L92" .........   1      9.5817       4.7484    49.56      4.8357    50.47      3.63     2.42
   -                   2      9.5821       4.7483    49.55      4.8357    50.47      0.00     0.00
"LINE.L93" .........   1       14.52            0     0.00           0     0.00      3.63     2.42
   -                   2       14.52            0     0.00           0     0.00      0.00     0.00
"LINE.L94" .........   1      4.7424       4.7428   100.01      4.7428   100.01      3.56     2.37
   -                   2      4.7428       4.7428   100.00      4.7428   100.00      0.00     0.00
"LINE.L95" .........   1      7.1148            0     0.00           0     0.00      1.78     1.19
   -                   2       7.115            0     0.00           0     0.00      0.00     0.00
"LINE.L96" .........   1           0            0     0.00           0     0.00      0.00     0.00
   -                   2           0            0     0.00           0     0.00      0.00     0.00
"LINE.L97" .........   1           0            0     0.00           0     0.00      0.00     0.00
   -                   2           0            0     0.00           0     0.00      0.00     0.00
"LINE.L98" .........   1           0            0     0.00           0     0.00      0.00     0.00
   -                   2           0            0     0.00           0     0.00      0.00     0.00
"LINE.L99" .........   1           0            0     0.00           0     0.00      0.00     0.00
   -                   2           0            0     0.00           0     0.00      0.00     0.00
"LINE.L118" ........   1           0            0     0.00           0     0.00      0.00     0.00
   -                   2           0            0     0.00           0     0.00      0.00     0.00
"LINE.L100" ........   1           0            0     0.00           0     0.00      0.00     0.00
   -                   2           0            0     0.00           0     0.00      0.00     0.00
"LINE.L101" ........   1           0            0     0.00           0     0.00      0.00     0.00
   -                   2           0            0     0.00           0     0.00      0.00     0.00
"LINE.L102" ........   1           0            0     0.00           0     0.00      0.00     0.00
   -                   2           0            0     0.00           0     0.00      0.00     0.00
"LINE.L103" ........   1           0            0     0.00           0     0.00      0.00     0.00
   -                   2           0            0     0.00           0     0.00      0.00     0.00
"LINE.L104" ........   1           0            0     0.00           0     0.00      0.00     0.00
   -                   2           0            0     0.00           0     0.00      0.00     0.00
"LINE.L105" ........   1           0            0     0.00           0     0.00      0.00     0.00
   -                   2           0            0     0.00           0     0.00      0.00     0.00
"LINE.L106" ........   1           0            0     0.00           0     0.00      0.00     0.00
   -                   2           0            0     0.00           0     0.00      0.00     0.00
"LINE.L107" ........   1           0            0     0.00           0     0.00      0.00     0.00
   -                   2           0            0     0.00           0     0.00      0.00     0.00
"LINE.L108" ........   1           0            0     0.00           0     0.00      0.00     0.00
   -                   2           0            0     0.00           0     0.00      0.00     0.00
"LINE.L109" ........   1           0            0     0.00           0     0.00      0.00     0.00
   -                   2           0            0     0.00           0     0.00      0.00     0.00
"LINE.L110" ........   1           0            0     0.00           0     0.00      0.00     0.00
   -                   2           0            0     0.00           0     0.00      0.00     0.00
"LINE.L111" ........   1           0            0     0.00           0     0.00      0.00     0.00
   -                   2           0            0     0.00           0     0.00      0.00     0.00
"LINE.L112" ........   1           0            0     0.00           0     0.00      0.00     0.00
   -                   2           0            0     0.00           0     0.00      0.00     0.00
"LINE.L113" ........   1           0            0     0.00           0     0.00      0.00     0.00
   -                   2           0            0     0.00           0     0.00      0.00     0.00
"LINE.L114" ........   1       93.41       12.185    13.04      6.8285     7.31     25.80    17.20
   -                   2       93.41       12.185    13.04      6.8286     7.31      0.00     0.00
"LINE.L116" ........   1      163.43       16.029     9.81       11.87     7.26     46.64    31.10
   -                   2      163.43       16.029     9.81       11.87     7.26      0.00     0.00
"LINE.L117" ........   1      113.75       9.9669     8.76      7.4417     6.54     31.78    21.19
   -                   2      113.75       9.9668     8.76      7.4416     6.54      0.00     0.00
"LINE.SW1" .........   1      332.02       45.309    13.65       37.24    11.22    101.31    67.54
   -                   2      332.02       45.309    13.65       37.24    11.22      0.00     0.00
"LINE.SW2" .........   1      163.43       16.029     9.81       11.87     7.26     46.64    31.10
   -                   2      163.43       16.029     9.81       11.87     7.26      0.00     0.00
"LINE.SW3" .........   1       93.41       12.185    13.04      6.8285     7.31     25.80    17.20
   -                   2       93.41       12.185    13.04      6.8285     7.31      0.00     0.00
"LINE.SW4" .........   1      113.75       9.9669     8.76      7.4417     6.54     31.78    21.19
   -                   2      113.75       9.9669     8.76      7.4417     6.54      0.00     0.00
"LINE.SW5" .........   1           0            0     0.00           0     0.00      0.00     0.00
   -                   2           0            0     0.00           0     0.00      0.00     0.00
"LINE.SW6" .........   1  1.361E-005   1.6758E-007     1.23  1.6653E-007     1.22      0.00     0.00
   -                   2  1.361E-005   1.6758E-007     1.23  1.6653E-007     1.22      0.00     0.00
"LINE.SW7" .........   1           0            0     0.00           0     0.00      0.00     0.00
   -                   2           0            0     0.00           0     0.00      0.00     0.00
"LINE.SW8" .........   1           0            0     0.00           0     0.00      0.00     0.00
   -                   2           0            0     0.00           0     0.00      0.00     0.00
"TRANSFORMER.XFM1" .   1  1.3625E-005   8.4447E-008     0.62  6.1081E-008     0.45      0.00     0.00
   -                   2  7.5561E-013   6.7197E-013    88.93  3.3895E-013    44.86      0.00     0.00
"CAPACITOR.C83" ....   1       82.22      0.47076     0.57     0.73016     0.89      0.00     0.00
   -                   2       82.22      0.47076     0.57     0.73016     0.89      0.00     0.00
"CAPACITOR.C88A" ...   1      20.208            0     0.00           0     0.00      0.00     0.00
   -                   2      20.208            0     0.00           0     0.00      0.00     0.00
"CAPACITOR.C90B" ...   1       20.61            0     0.00           0     0.00      0.00     0.00
   -                   2       20.61            0     0.00           0     0.00      0.00     0.00
"CAPACITOR.C92C" ...   1      20.486            0     0.00           0     0.00      0.00     0.00
   -                   2      20.486            0     0.00           0     0.00      0.00     0.00
"TRANSFORMER.REG2A"    1      20.863            0     0.00           0     0.00      2.28     1.67
   -                   2      20.863            0     0.00           0     0.00      0.00     0.00
"TRANSFORMER.REG3A"    1      14.086            0     0.00           0     0.00      1.54     1.13
   -                   2      14.086            0     0.00           0     0.00      0.00     0.00
"TRANSFORMER.REG4A"    1      127.13            0     0.00           0     0.00     13.88    10.18
   -                   2      127.13            0     0.00           0     0.00      0.00     0.00
"TRANSFORMER.REG3C"    1      14.408            0     0.00           0     0.00      1.57     1.15
   -                   2      14.408            0     0.00           0     0.00      0.00     0.00
"TRANSFORMER.REG4B"    1      104.93            0     0.00           0     0.00     11.46     8.40
   -                   2      104.93            0     0.00           0     0.00      0.00     0.00
"TRANSFORMER.REG4C"    1      110.03            0     0.00           0     0.00     12.01     8.81
   -                   2      110.03            0     0.00           0     0.00      0.00     0.00
"LOAD.S1A" .........   1      14.184            0     0.00           0     0.00      0.00     0.00
"LOAD.S2B" .........   1      7.0478            0     0.00           0     0.00      0.00     0.00
"LOAD.S4C" .........   1      14.175            0     0.00           0     0.00      0.00     0.00
"LOAD.S5C" .........   1      7.0436            0     0.00           0     0.00      0.00     0.00
"LOAD.S6C" .........   1      13.985            0     0.00           0     0.00      0.00     0.00
"LOAD.S7A" .........   1      7.1323            0     0.00           0     0.00      0.00     0.00
"LOAD.S9A" .........   1      14.334            0     0.00           0     0.00      0.00     0.00
"LOAD.S10A" ........   1      7.0436            0     0.00           0     0.00      0.00     0.00
"LOAD.S11A" ........   1      13.821            0     0.00           0     0.00      0.00     0.00
"LOAD.S12B" ........   1      7.0579            0     0.00           0     0.00      0.00     0.00
"LOAD.S16C" ........   1      14.301            0     0.00           0     0.00      0.00     0.00
"LOAD.S17C" ........   1      7.1477            0     0.00           0     0.00      0.00     0.00
"LOAD.S19A" ........   1        14.5            0     0.00           0     0.00      0.00     0.00
"LOAD.S20A" ........   1      14.087            0     0.00           0     0.00      0.00     0.00
"LOAD.S22B" ........   1      13.988            0     0.00           0     0.00      0.00     0.00
"LOAD.S24C" ........   1      14.401            0     0.00           0     0.00      0.00     0.00
"LOAD.S28A" ........   1      14.087            0     0.00           0     0.00      0.00     0.00
"LOAD.S29A" ........   1      13.678            0     0.00           0     0.00      0.00     0.00
"LOAD.S30C" ........   1      14.409            0     0.00           0     0.00      0.00     0.00
"LOAD.S31C" ........   1      7.2037            0     0.00           0     0.00      0.00     0.00
"LOAD.S32C" ........   1      7.2059            0     0.00           0     0.00      0.00     0.00
"LOAD.S33A" ........   1      14.087            0     0.00           0     0.00      0.00     0.00
"LOAD.S34C" ........   1      13.891            0     0.00           0     0.00      0.00     0.00
"LOAD.S35A" ........   1      8.3205            0     0.00           0     0.00      0.00     0.00
"LOAD.S37A" ........   1      13.653            0     0.00           0     0.00      0.00     0.00
"LOAD.S38B" ........   1      7.0436            0     0.00           0     0.00      0.00     0.00
"LOAD.S39B" ........   1      7.1087            0     0.00           0     0.00      0.00     0.00
"LOAD.S41C" ........   1      7.1936            0     0.00           0     0.00      0.00     0.00
"LOAD.S42A" ........   1      7.2757            0     0.00           0     0.00      0.00     0.00
"LOAD.S43B" ........   1      13.937            0     0.00           0     0.00      0.00     0.00
"LOAD.S45A" ........   1      7.0436            0     0.00           0     0.00      0.00     0.00
"LOAD.S46A" ........   1      7.2873            0     0.00           0     0.00      0.00     0.00
"LOAD.S47" .........   1      13.538     0.059605     0.44    0.059647     0.44      0.00     0.00
"LOAD.S48" .........   1      26.447      0.14794     0.56     0.25866     0.98      0.00     0.00
"LOAD.S49A" ........   1      14.021            0     0.00           0     0.00      0.00     0.00
"LOAD.S49B" ........   1       27.41            0     0.00           0     0.00      0.00     0.00
"LOAD.S49C" ........   1      12.995            0     0.00           0     0.00      0.00     0.00
"LOAD.S50C" ........   1       14.42            0     0.00           0     0.00      0.00     0.00
"LOAD.S51A" ........   1      7.2905            0     0.00           0     0.00      0.00     0.00
"LOAD.S52A" ........   1      14.426            0     0.00           0     0.00      0.00     0.00
"LOAD.S53A" ........   1      14.443            0     0.00           0     0.00      0.00     0.00
"LOAD.S55A" ........   1       6.865            0     0.00           0     0.00      0.00     0.00
"LOAD.S56B" ........   1      7.0712            0     0.00           0     0.00      0.00     0.00
"LOAD.S58B" ........   1      7.0436            0     0.00           0     0.00      0.00     0.00
"LOAD.S59B" ........   1       7.084            0     0.00           0     0.00      0.00     0.00
"LOAD.S60A" ........   1      7.2463            0     0.00           0     0.00      0.00     0.00
"LOAD.S62C" ........   1      13.816            0     0.00           0     0.00      0.00     0.00
"LOAD.S63A" ........   1      14.508            0     0.00           0     0.00      0.00     0.00
"LOAD.S64B" ........   1      26.071            0     0.00           0     0.00      0.00     0.00
"LOAD.S65A" ........   1        7.62            0     0.00           0     0.00      0.00     0.00
"LOAD.S65B" ........   1      7.6887            0     0.00           0     0.00      0.00     0.00
"LOAD.S65C" ........   1      15.251            0     0.00           0     0.00      0.00     0.00
"LOAD.S66C" ........   1      26.743            0     0.00           0     0.00      0.00     0.00
"LOAD.S68A" ........   1       7.257            0     0.00           0     0.00      0.00     0.00
"LOAD.S69A" ........   1      14.535            0     0.00           0     0.00      0.00     0.00
"LOAD.S70A" ........   1      7.2751            0     0.00           0     0.00      0.00     0.00
"LOAD.S71A" ........   1      14.559            0     0.00           0     0.00      0.00     0.00
"LOAD.S73C" ........   1       14.37            0     0.00           0     0.00      0.00     0.00
"LOAD.S74C" ........   1       13.79            0     0.00           0     0.00      0.00     0.00
"LOAD.S75C" ........   1      14.403            0     0.00           0     0.00      0.00     0.00
"LOAD.S76A" ........   1      23.989            0     0.00           0     0.00      0.00     0.00
"LOAD.S76B" ........   1      15.633            0     0.00           0     0.00      0.00     0.00
"LOAD.S76C" ........   1      15.633            0     0.00           0     0.00      0.00     0.00
"LOAD.S77B" ........   1      14.173            0     0.00           0     0.00      0.00     0.00
"LOAD.S79A" ........   1      13.718            0     0.00           0     0.00      0.00     0.00
"LOAD.S80B" ........   1      14.143            0     0.00           0     0.00      0.00     0.00
"LOAD.S82A" ........   1      14.411            0     0.00           0     0.00      0.00     0.00
"LOAD.S83C" ........   1      7.1389            0     0.00           0     0.00      0.00     0.00
"LOAD.S84C" ........   1      7.1655            0     0.00           0     0.00      0.00     0.00
"LOAD.S85C" ........   1      14.345            0     0.00           0     0.00      0.00     0.00
"LOAD.S86B" ........   1      7.1039            0     0.00           0     0.00      0.00     0.00
"LOAD.S87B" ........   1      14.215            0     0.00           0     0.00      0.00     0.00
"LOAD.S88A" ........   1      14.499            0     0.00           0     0.00      0.00     0.00
"LOAD.S90B" ........   1      14.087            0     0.00           0     0.00      0.00     0.00
"LOAD.S92C" ........   1      14.302            0     0.00           0     0.00      0.00     0.00
"LOAD.S94A" ........   1       14.52            0     0.00           0     0.00      0.00     0.00
"LOAD.S95B" ........   1      7.1135            0     0.00           0     0.00      0.00     0.00
"LOAD.S96B" ........   1       7.115            0     0.00           0     0.00      0.00     0.00
"LOAD.S98A" ........   1           0            0     0.00           0     0.00      0.00     0.00
"LOAD.S99B" ........   1           0            0     0.00           0     0.00      0.00     0.00
"LOAD.S100C" .......   1           0            0     0.00           0     0.00      0.00     0.00
"LOAD.S102C" .......   1           0            0     0.00           0     0.00      0.00     0.00
"LOAD.S103C" .......   1           0            0     0.00           0     0.00      0.00     0.00
"LOAD.S104C" .......   1           0            0     0.00           0     0.00      0.00     0.00
"LOAD.S106B" .......   1           0            0     0.00           0     0.00      0.00     0.00
"LOAD.S107B" .......   1           0            0     0.00           0     0.00      0.00     0.00
"LOAD.S109A" .......   1           0            0     0.00           0     0.00      0.00     0.00
"LOAD.S111A" .......   1           0            0     0.00           0     0.00      0.00     0.00
"LOAD.S112A" .......   1           0            0     0.00           0     0.00      0.00     0.00
"LOAD.S113A" .......   1           0            0     0.00           0     0.00      0.00     0.00
"LOAD.S114A" .......   1           0            0     0.00           0     0.00      0.00     0.00
"FAULT.3_PH" .......   1           0            0     0.00           0     0.00      0.00     0.00
   -                   2           0            0     0.00           0     0.00      0.00     0.00
